#       Name:                   cD_from_tleap
#       Creating user name:     Zhiye Tang
#       Creation time:          Mon Sep 14 10:53:25 2015


#       Modifying user name:    Zhiye Tang
#       Modification time:      Mon Sep 14 10:53:25 2015


@<TRIPOS>MOLECULE
cD_from_tleap
  147   154     1    0    0
SMALL
USER_CHARGES

File created by VEGA ZZ 3.0.1
@<TRIPOS>ATOM
      1 C1         -0.4530    6.1340   -0.0930 c3        1 BCD         0.3130
      2 O4         -0.9680    5.8240   -1.4180 os        1 BCD        -0.3700
      3 C5         -1.7770    4.6080   -1.4480 c3        1 BCD         0.1420
      4 C6         -2.2070    4.3710   -2.9000 c3        1 BCD         0.1730
      5 O5         -3.0410    5.4440   -3.3810 oh        1 BCD        -0.6500
      6 H10        -2.4730    6.2980   -3.2420 ho        1 BCD         0.4000
      7 H8         -1.3000    4.3060   -3.5430 h1        1 BCD         0.0420
      8 H9         -2.7590    3.4090   -2.9900 h1        1 BCD         0.0420
      9 H7         -1.1530    3.7320   -1.1490 h1        1 BCD         0.0370
     10 O33         0.4170    5.0460    0.3470 os        1 BCD        -0.3700
     11 C40         1.8170    5.4030    0.5760 c3        1 BCD         0.1420
     12 C41         2.7080    4.7410   -0.5050 c3        1 BCD         0.1420
     13 O34         4.1340    4.8760   -0.2030 os        1 BCD        -0.3700
     14 C42         2.4560    5.3180   -1.9030 c3        1 BCD         0.1730
     15 O35         2.6310    6.7500   -1.9270 oh        1 BCD        -0.6500
     16 H70         2.6460    7.0040   -2.9300 ho        1 BCD         0.4000
     17 H68         3.1690    4.8530   -2.6220 h1        1 BCD         0.0420
     18 H69         1.4230    5.0720   -2.2370 h1        1 BCD         0.0420
     19 H67         2.4450    3.6570   -0.5610 h1        1 BCD         0.0370
     20 H66         2.0050    6.5040    0.5690 h1        1 BCD         0.0370
     21 H1          0.0730    7.1160   -0.1690 h2        1 BCD         0.0520
     22 C2         -1.6190    6.3370    0.8920 c3        1 BCD         0.1930
     23 O1         -1.1280    6.6580    2.2100 oh        1 BCD        -0.6500
     24 H3         -0.5580    5.8410    2.4880 ho        1 BCD         0.4000
     25 H2         -2.2310    7.1990    0.5370 h1        1 BCD         0.0620
     26 C3         -2.5120    5.0870    0.9240 c3        1 BCD         0.1930
     27 O2         -3.6600    5.3280    1.7660 oh        1 BCD        -0.6500
     28 H5         -3.9560    4.3870    2.0820 ho        1 BCD         0.4000
     29 H4         -1.9290    4.2380    1.3540 h1        1 BCD         0.0620
     30 C4         -2.9870    4.7100   -0.4900 c3        1 BCD         0.1420
     31 H6         -3.6340    5.5490   -0.8430 h1        1 BCD         0.0370
     32 O3         -3.6760    3.4240   -0.4150 os        1 BCD        -0.3700
     33 C7         -5.0460    3.4100   -0.9260 c3        1 BCD         0.3130
     34 O9         -5.1010    2.6030   -2.1320 os        1 BCD        -0.3700
     35 C11        -4.7360    1.2070   -1.9060 c3        1 BCD         0.1420
     36 C12        -4.7660    0.4850   -3.2590 c3        1 BCD         0.1730
     37 O10        -6.1020    0.4190   -3.7970 oh        1 BCD        -0.6500
     38 H20        -5.9870    0.0870   -4.7700 ho        1 BCD         0.4000
     39 H18        -4.1140    1.0350   -3.9760 h1        1 BCD         0.0420
     40 H19        -4.3650   -0.5470   -3.1520 h1        1 BCD         0.0420
     41 H17        -3.6830    1.1530   -1.5400 h1        1 BCD         0.0370
     42 H11        -5.4260    4.4230   -1.1980 h2        1 BCD         0.0520
     43 C8         -6.0210    2.8560    0.1280 c3        1 BCD         0.1930
     44 O6         -5.9680    3.6210    1.3540 oh        1 BCD        -0.6500
     45 H13        -5.7790    4.5980    1.0670 ho        1 BCD         0.4000
     46 H12        -7.0550    2.9220   -0.2830 h1        1 BCD         0.0620
     47 C9         -5.7100    1.3830    0.4240 c3        1 BCD         0.1930
     48 H14        -4.7190    1.3230    0.9350 h1        1 BCD         0.0620
     49 O7         -6.7120    0.8520    1.3160 oh        1 BCD        -0.6500
     50 H15        -6.7410    1.5210    2.1070 ho        1 BCD         0.4000
     51 C10        -5.6570    0.5370   -0.8600 c3        1 BCD         0.1420
     52 H16        -6.6910    0.5030   -1.2790 h1        1 BCD         0.0370
     53 O8         -5.1160   -0.7740   -0.5100 os        1 BCD        -0.3700
     54 C13        -5.9830   -1.9160   -0.7890 c3        1 BCD         0.3130
     55 H21        -7.0310   -1.6230   -1.0340 h2        1 BCD         0.0520
     56 O14        -5.4480   -2.6580   -1.9210 os        1 BCD        -0.3700
     57 C17        -4.0960   -3.1590   -1.6810 c3        1 BCD         0.1420
     58 H27        -3.4050   -2.2970   -1.5220 h1        1 BCD         0.0370
     59 C18        -3.6140   -3.8710   -2.9520 c3        1 BCD         0.1730
     60 O15        -4.3220   -5.1090   -3.1740 oh        1 BCD        -0.6500
     61 H30        -4.1440   -5.3490   -4.1640 ho        1 BCD         0.4000
     62 H29        -3.7730   -3.2000   -3.8270 h1        1 BCD         0.0420
     63 H28        -2.5240   -4.0850   -2.8780 h1        1 BCD         0.0420
     64 C14        -6.0710   -2.8370    0.4390 c3        1 BCD         0.1930
     65 O11        -6.6360   -2.1360    1.5690 oh        1 BCD        -0.6500
     66 H23        -6.1180   -1.2420    1.6170 ho        1 BCD         0.4000
     67 H22        -6.7450   -3.6900    0.1910 h1        1 BCD         0.0620
     68 C15        -4.6820   -3.3950    0.7820 c3        1 BCD         0.1930
     69 O12        -4.7950   -4.3530    1.8570 oh        1 BCD        -0.6500
     70 H25        -3.8960   -4.2880    2.3660 ho        1 BCD         0.4000
     71 H24        -4.0340   -2.5530    1.1230 h1        1 BCD         0.0620
     72 C16        -4.0300   -4.0740   -0.4350 c3        1 BCD         0.1420
     73 H26        -4.6350   -4.9900   -0.6400 h1        1 BCD         0.0370
     74 O13        -2.6340   -4.3450   -0.1040 os        1 BCD        -0.3700
     75 C19        -2.1910   -5.7210   -0.3030 c3        1 BCD         0.3130
     76 O19        -1.1840   -5.7520   -1.3520 os        1 BCD        -0.3700
     77 C23         0.0140   -4.9870   -1.0190 c3        1 BCD         0.1420
     78 C24         0.9470   -5.0290   -2.2350 c3        1 BCD         0.1730
     79 H38         0.4160   -4.6020   -3.1170 h1        1 BCD         0.0420
     80 H39         1.8550   -4.4120   -2.0510 h1        1 BCD         0.0420
     81 O20         1.3460   -6.3790   -2.5440 oh        1 BCD        -0.6500
     82 H40         0.4550   -6.8930   -2.6650 ho        1 BCD         0.4000
     83 H37        -0.2520   -3.9140   -0.8580 h1        1 BCD         0.0370
     84 H31        -3.0120   -6.4050   -0.6230 h2        1 BCD         0.0520
     85 C20        -1.6240   -6.3010    1.0050 c3        1 BCD         0.1930
     86 H32        -1.3770   -7.3750    0.8330 h1        1 BCD         0.0620
     87 O16        -2.5840   -6.2240    2.0830 oh        1 BCD        -0.6500
     88 H33        -3.5170   -6.2210    1.6330 ho        1 BCD         0.4000
     89 C21        -0.3370   -5.5680    1.4090 c3        1 BCD         0.1930
     90 O17         0.2370   -6.2240    2.5580 oh        1 BCD        -0.6500
     91 H35        -0.5280   -6.2450    3.2560 ho        1 BCD         0.4000
     92 H34        -0.5940   -4.5200    1.6950 h1        1 BCD         0.0620
     93 C22         0.6880   -5.5320    0.2600 c3        1 BCD         0.1420
     94 H36         1.0000   -6.5840    0.0590 h1        1 BCD         0.0370
     95 O18         1.7920   -4.6530    0.6490 os        1 BCD        -0.3700
     96 C25         3.1110   -5.2800    0.7040 c3        1 BCD         0.3130
     97 O24         3.9270   -4.7880   -0.3960 os        1 BCD        -0.3700
     98 C29         4.1530   -3.3450   -0.3400 c3        1 BCD         0.1420
     99 C30         4.9740   -2.9520   -1.5740 c3        1 BCD         0.1730
    100 H48         5.0770   -1.8460   -1.6340 h1        1 BCD         0.0420
    101 H49         4.4430   -3.2940   -2.4920 h1        1 BCD         0.0420
    102 O25         6.2850   -3.5510   -1.5460 oh        1 BCD        -0.6500
    103 H50         6.1040   -4.5660   -1.4550 ho        1 BCD         0.4000
    104 H47         3.1760   -2.8100   -0.4240 h1        1 BCD         0.0370
    105 H41         3.0730   -6.3930    0.6250 h2        1 BCD         0.0520
    106 C26         3.8070   -4.9780    2.0410 c3        1 BCD         0.1930
    107 O21         3.0390   -5.4710    3.1590 oh        1 BCD        -0.6500
    108 H43         2.0610   -5.2010    2.9500 ho        1 BCD         0.4000
    109 H42         4.7930   -5.5000    2.0470 h1        1 BCD         0.0620
    110 C27         4.0540   -3.4710    2.1860 c3        1 BCD         0.1930
    111 O22         4.7820   -3.2190    3.4050 oh        1 BCD        -0.6500
    112 H45         4.3030   -3.7920    4.1240 ho        1 BCD         0.4000
    113 H44         3.0710   -2.9470    2.2520 h1        1 BCD         0.0620
    114 C28         4.8370   -2.9170    0.9820 c3        1 BCD         0.1420
    115 H46         5.8530   -3.3780    1.0220 h1        1 BCD         0.0370
    116 O23         4.8480   -1.4590    1.0800 os        1 BCD        -0.3700
    117 C31         6.1630   -0.8250    1.0070 c3        1 BCD         0.3130
    118 O29         6.2260    0.0100   -0.1820 os        1 BCD        -0.3700
    119 C35         5.2100    1.0590   -0.1940 c3        1 BCD         0.1420
    120 C36         5.3480    1.8240   -1.5140 c3        1 BCD         0.1730
    121 O30         5.1140    0.9430   -2.6300 oh        1 BCD        -0.6500
    122 H60         5.7960    0.1740   -2.4980 ho        1 BCD         0.4000
    123 H58         6.3720    2.2540   -1.6000 h1        1 BCD         0.0420
    124 H59         4.6090    2.6530   -1.5650 h1        1 BCD         0.0420
    125 H57         4.1900    0.6050   -0.1870 h1        1 BCD         0.0370
    126 H51         7.0040   -1.5560    0.9430 h2        1 BCD         0.0520
    127 C32         6.4260    0.0360    2.2530 c3        1 BCD         0.1930
    128 H52         7.4430    0.4840    2.1610 h1        1 BCD         0.0620
    129 O26         6.4060   -0.7690    3.4510 oh        1 BCD        -0.6500
    130 H53         5.4370   -1.1270    3.5190 ho        1 BCD         0.4000
    131 C33         5.4010    1.1770    2.3340 c3        1 BCD         0.1930
    132 H54         4.3920    0.7380    2.5260 h1        1 BCD         0.0620
    133 O27         5.7390    2.0470    3.4340 oh        1 BCD        -0.6500
    134 H55         4.8730    2.5820    3.6200 ho        1 BCD         0.4000
    135 C34         5.3530    1.9950    1.0300 c3        1 BCD         0.1420
    136 H56         6.3290    2.5280    0.9330 h1        1 BCD         0.0370
    137 O28         4.1980    2.8860    1.0950 os        1 BCD        -0.3700
    138 C37         4.4970    4.3160    1.0900 c3        1 BCD         0.3130
    139 H61         5.5760    4.5370    1.2720 h2        1 BCD         0.0520
    140 C38         3.7260    5.0460    2.2010 c3        1 BCD         0.1930
    141 H62         3.9940    6.1280    2.1530 h1        1 BCD         0.0620
    142 O31         4.0870    4.5480    3.5070 oh        1 BCD        -0.6500
    143 H63         3.7980    5.2950    4.1620 ho        1 BCD         0.4000
    144 C39         2.2180    4.9010    1.9750 c3        1 BCD         0.1930
    145 H64         1.9360    3.8250    2.0680 h1        1 BCD         0.0620
    146 O32         1.5180    5.6450    2.9940 oh        1 BCD        -0.6500
    147 H65         1.5700    5.0480    3.8390 ho        1 BCD         0.4000
@<TRIPOS>BOND
     1    1    2 1
     2    1   10 1
     3    1   21 1
     4    1   22 1
     5    2    3 1
     6    3    4 1
     7    3    9 1
     8    3   30 1
     9    4    7 1
    10    4    8 1
    11    4    5 1
    12    5    6 1
    13   10   11 1
    14   11   12 1
    15   11   20 1
    16   11  144 1
    17   12   14 1
    18   12   19 1
    19   12   13 1
    20   13  138 1
    21   14   15 1
    22   14   17 1
    23   14   18 1
    24   15   16 1
    25   22   23 1
    26   22   25 1
    27   22   26 1
    28   23   24 1
    29   26   29 1
    30   26   27 1
    31   26   30 1
    32   27   28 1
    33   30   31 1
    34   30   32 1
    35   32   33 1
    36   33   34 1
    37   33   42 1
    38   33   43 1
    39   34   35 1
    40   35   36 1
    41   35   51 1
    42   35   41 1
    43   36   37 1
    44   36   40 1
    45   36   39 1
    46   37   38 1
    47   43   44 1
    48   43   46 1
    49   43   47 1
    50   44   45 1
    51   47   51 1
    52   47   48 1
    53   47   49 1
    54   49   50 1
    55   51   52 1
    56   51   53 1
    57   53   54 1
    58   54   55 1
    59   54   56 1
    60   54   64 1
    61   56   57 1
    62   57   59 1
    63   57   58 1
    64   57   72 1
    65   59   60 1
    66   59   63 1
    67   59   62 1
    68   60   61 1
    69   64   67 1
    70   64   68 1
    71   64   65 1
    72   65   66 1
    73   68   69 1
    74   68   72 1
    75   68   71 1
    76   69   70 1
    77   72   73 1
    78   72   74 1
    79   74   75 1
    80   75   76 1
    81   75   84 1
    82   75   85 1
    83   76   77 1
    84   77   83 1
    85   77   78 1
    86   77   93 1
    87   78   79 1
    88   78   80 1
    89   78   81 1
    90   81   82 1
    91   85   86 1
    92   85   87 1
    93   85   89 1
    94   87   88 1
    95   89   90 1
    96   89   92 1
    97   89   93 1
    98   90   91 1
    99   93   94 1
   100   93   95 1
   101   95   96 1
   102   96   97 1
   103   96  105 1
   104   96  106 1
   105   97   98 1
   106   98   99 1
   107   98  104 1
   108   98  114 1
   109   99  102 1
   110   99  101 1
   111   99  100 1
   112  102  103 1
   113  106  107 1
   114  106  109 1
   115  106  110 1
   116  107  108 1
   117  110  113 1
   118  110  114 1
   119  110  111 1
   120  111  112 1
   121  114  116 1
   122  114  115 1
   123  116  117 1
   124  117  118 1
   125  117  126 1
   126  117  127 1
   127  118  119 1
   128  119  120 1
   129  119  125 1
   130  119  135 1
   131  120  124 1
   132  120  121 1
   133  120  123 1
   134  121  122 1
   135  127  128 1
   136  127  131 1
   137  127  129 1
   138  129  130 1
   139  131  132 1
   140  131  135 1
   141  131  133 1
   142  133  134 1
   143  135  137 1
   144  135  136 1
   145  137  138 1
   146  138  139 1
   147  138  140 1
   148  140  141 1
   149  140  144 1
   150  140  142 1
   151  142  143 1
   152  144  145 1
   153  144  146 1
   154  146  147 1
@<TRIPOS>SUBSTRUCTURE
     1 BCD         1 RESIDUE           1 A     BCD     0 ROOT
